ligands/lig.pdb
     RDKit          3D

 28 31  0  0  0  0  0  0  0  0999 V2000
   -0.4566    2.9519   -8.3671 C   0  0  0  0  0  0  0  0  0  0  0  0
    0.5151    3.6021   -9.0257 N   0  0  0  0  0  0  0  0  0  0  0  0
   -1.1595    5.0804   -9.9456 C   0  0  0  0  0  0  0  0  0  0  0  0
    0.1538    4.6485   -9.7951 C   0  0  0  0  0  0  0  0  0  0  0  0
   -1.7426    3.3510   -8.4125 N   0  0  0  0  0  0  0  0  0  0  0  0
   -2.0836    4.3828   -9.1835 C   0  0  0  0  0  0  0  0  0  0  0  0
   -1.5983    6.1244  -10.7879 C   0  0  0  0  0  0  0  0  0  0  0  0
   -3.4165    4.7545   -9.2534 C   0  0  0  0  0  0  0  0  0  0  0  0
   -2.9504    6.4875  -10.8538 C   0  0  0  0  0  0  0  0  0  0  0  0
   -3.8801    5.7811  -10.0859 C   0  0  0  0  0  0  0  0  0  0  0  0
    1.2026    5.3068  -10.5068 N   0  0  0  0  0  0  0  0  0  0  0  0
    1.9721   -2.1967   -6.3697 C   0  0  0  0  0  0  0  0  0  0  0  0
   -0.1748    1.7460   -7.7130 N   0  0  0  0  0  0  0  0  0  0  0  0
    1.4062   -1.0395   -6.9262 N   0  0  0  0  0  0  0  0  0  0  0  0
    0.9949    1.5974   -6.8317 C   0  0  0  0  0  0  0  0  0  0  0  0
   -0.4024    0.4092   -8.2845 C   0  0  0  0  0  0  0  0  0  0  0  0
    1.6776    0.2463   -6.5162 C   0  0  0  0  0  0  0  0  0  0  0  0
    0.3855   -0.8573   -7.8347 C   0  0  0  0  0  0  0  0  0  0  0  0
    2.8604   -2.1164   -5.5239 O   0  0  0  0  0  0  0  0  0  0  0  0
    1.4685   -3.4885   -6.8015 C   0  0  0  0  0  0  0  0  0  0  0  0
    1.0188   -4.4230   -5.9085 O   0  0  0  0  0  0  0  0  0  0  0  0
    1.3651   -3.9998   -8.0813 C   0  0  0  0  0  0  0  0  0  0  0  0
    0.6360   -5.5193   -6.6195 C   0  0  0  0  0  0  0  0  0  0  0  0
    0.8325   -5.3034   -7.9641 C   0  0  0  0  0  0  0  0  0  0  0  0
   -3.3659    7.4749  -11.7112 O   0  0  0  0  0  0  0  0  0  0  0  0
   -3.8000    6.9670  -12.9457 C   0  0  0  0  0  0  0  0  0  0  0  0
   -5.2219    6.0301   -9.9579 O   0  0  0  0  0  0  0  0  0  0  0  0
   -5.5710    7.1286   -9.1663 C   0  0  0  0  0  0  0  0  0  0  0  0
  1  2  2  0
  1  5  1  0
  1 13  1  0
  2  4  1  0
  3  6  1  0
  3  4  2  0
  3  7  1  0
  4 11  1  0
  5  6  2  0
  6  8  1  0
 12 14  1  0
 12 20  1  0
 12 19  2  0
 13 15  1  0
 13 16  1  0
 14 18  1  0
 14 17  1  0
  7  9  2  0
 20 21  1  0
 20 22  2  0
  8 10  2  0
  9 10  1  0
  9 25  1  0
 10 27  1  0
 21 23  1  0
 15 17  2  0
 16 18  2  0
 22 24  1  0
 23 24  2  0
 25 26  1  0
 27 28  1  0
M  END
>  <COMPND>  (1) 
UNNAMED

>  <AUTHOR>  (1) 
GENERATED BY OPEN BABEL 3.1.0

>  <MASTER>  (1) 
0    0    0    0    0    0    0    0   28    0   28    0

>  <minimizedAffinity>  (1) 
-8.10807

>  <CNNscore>  (1) 
0.2580555379

>  <CNNaffinity>  (1) 
4.3542575836

>  <CNN_VS>  (1) 
1.1236402988

>  <CNNaffinity_variance>  (1) 
0.6977140903

$$$$
