ligands/lig.pdb


 30 33  0  0  0  0  0  0  0  0999 V2000
   -0.4566    2.9519   -8.3671 C   0  0  0  0  0  0  0  0  0  0  0  0
    0.5151    3.6021   -9.0257 N   0  0  0  0  0  0  0  0  0  0  0  0
   -1.1595    5.0804   -9.9456 C   0  0  0  0  0  0  0  0  0  0  0  0
    0.1538    4.6485   -9.7951 C   0  0  0  0  0  0  0  0  0  0  0  0
   -1.7426    3.3510   -8.4125 N   0  0  0  0  0  0  0  0  0  0  0  0
   -2.0836    4.3828   -9.1835 C   0  0  0  0  0  0  0  0  0  0  0  0
   -1.5983    6.1244  -10.7879 C   0  0  0  0  0  0  0  0  0  0  0  0
   -3.4165    4.7545   -9.2534 C   0  0  0  0  0  0  0  0  0  0  0  0
   -2.9504    6.4875  -10.8538 C   0  0  0  0  0  0  0  0  0  0  0  0
   -3.8801    5.7811  -10.0859 C   0  0  0  0  0  0  0  0  0  0  0  0
    1.2026    5.3068  -10.5068 N   0  0  0  0  0  0  0  0  0  0  0  0
    2.1336    5.0039  -10.4029 H   0  0  0  0  0  0  0  0  0  0  0  0
    0.9946    6.0635  -11.1013 H   0  0  0  0  0  0  0  0  0  0  0  0
    1.9721   -2.1967   -6.3697 C   0  0  0  0  0  0  0  0  0  0  0  0
   -0.1748    1.7460   -7.7130 N   0  0  0  0  0  0  0  0  0  0  0  0
    1.4062   -1.0395   -6.9262 N   0  0  0  0  0  0  0  0  0  0  0  0
    0.9949    1.5974   -6.8317 C   0  0  0  0  0  0  0  0  0  0  0  0
   -0.4024    0.4092   -8.2845 C   0  0  0  0  0  0  0  0  0  0  0  0
    1.6776    0.2463   -6.5162 C   0  0  0  0  0  0  0  0  0  0  0  0
    0.3855   -0.8573   -7.8347 C   0  0  0  0  0  0  0  0  0  0  0  0
    2.8604   -2.1164   -5.5239 O   0  0  0  0  0  0  0  0  0  0  0  0
    1.4685   -3.4885   -6.8015 C   0  0  0  0  0  0  0  0  0  0  0  0
    1.0188   -4.4230   -5.9085 O   0  0  0  0  0  0  0  0  0  0  0  0
    1.3651   -3.9998   -8.0813 C   0  0  0  0  0  0  0  0  0  0  0  0
    0.6360   -5.5193   -6.6195 C   0  0  0  0  0  0  0  0  0  0  0  0
    0.8325   -5.3034   -7.9641 C   0  0  0  0  0  0  0  0  0  0  0  0
   -3.3659    7.4749  -11.7112 O   0  0  0  0  0  0  0  0  0  0  0  0
   -3.8000    6.9670  -12.9457 C   0  0  0  0  0  0  0  0  0  0  0  0
   -5.2219    6.0301   -9.9579 O   0  0  0  0  0  0  0  0  0  0  0  0
   -5.5710    7.1286   -9.1663 C   0  0  0  0  0  0  0  0  0  0  0  0
  1  2  2  0
  1  5  1  0
  1 15  1  0
  2  4  1  0
  3  6  1  0
  3  4  2  0
  3  7  1  0
  4 11  1  0
  5  6  2  0
  6  8  1  0
 14 16  1  0
 14 22  1  0
 14 21  2  0
 15 17  1  0
 15 18  1  0
 16 20  1  0
 16 19  1  0
  7  9  2  0
 22 23  1  0
 22 24  2  0
  8 10  2  0
  9 10  1  0
  9 27  1  0
 10 29  1  0
 23 25  1  0
 17 19  2  0
 18 20  2  0
 24 26  1  0
 25 26  2  0
 27 28  1  0
 29 30  1  0
 11 12  1  0
 11 13  1  0
M  END
> <COMPND>
UNNAMED

> <AUTHOR>
GENERATED BY OPEN BABEL 3.1.0

> <MASTER>
0    0    0    0    0    0    0    0   28    0   28    0

> <minimizedAffinity>
-8.10807

> <CNNscore>
0.2580555379

> <CNNaffinity>
4.3542575836

> <CNN_VS>
1.1236402988

> <CNNaffinity_variance>
0.6977140903

$$$$
ligands/lig.pdb


 30 33  0  0  0  0  0  0  0  0999 V2000
    2.9317    6.9132   -9.3161 C   0  0  0  0  0  0  0  0  0  0  0  0
    2.7010    7.3234  -10.5728 N   0  0  0  0  0  0  0  0  0  0  0  0
    2.6700    9.6034   -9.7750 C   0  0  0  0  0  0  0  0  0  0  0  0
    2.5779    8.6494  -10.7827 C   0  0  0  0  0  0  0  0  0  0  0  0
    3.0970    7.7812   -8.2990 N   0  0  0  0  0  0  0  0  0  0  0  0
    2.9651    9.0881   -8.5225 C   0  0  0  0  0  0  0  0  0  0  0  0
    2.4831   10.9938   -9.9291 C   0  0  0  0  0  0  0  0  0  0  0  0
    3.0954    9.9656   -7.4583 C   0  0  0  0  0  0  0  0  0  0  0  0
    2.6123   11.8708   -8.8434 C   0  0  0  0  0  0  0  0  0  0  0  0
    2.9080   11.3482   -7.5815 C   0  0  0  0  0  0  0  0  0  0  0  0
    2.3058    9.0587  -12.1237 N   0  0  0  0  0  0  0  0  0  0  0  0
    2.2399    8.3863  -12.8398 H   0  0  0  0  0  0  0  0  0  0  0  0
    2.1841   10.0131  -12.3320 H   0  0  0  0  0  0  0  0  0  0  0  0
    2.5977    0.8904   -9.4185 C   0  0  0  0  0  0  0  0  0  0  0  0
    2.8739    5.5497   -9.0018 N   0  0  0  0  0  0  0  0  0  0  0  0
    2.5855    2.2934   -9.4393 N   0  0  0  0  0  0  0  0  0  0  0  0
    3.9170    4.6083   -9.4407 C   0  0  0  0  0  0  0  0  0  0  0  0
    1.6364    4.7557   -8.9385 C   0  0  0  0  0  0  0  0  0  0  0  0
    3.6942    3.0888   -9.6213 C   0  0  0  0  0  0  0  0  0  0  0  0
    1.6012    3.2116   -9.1422 C   0  0  0  0  0  0  0  0  0  0  0  0
    3.6244    0.2678   -9.6817 O   0  0  0  0  0  0  0  0  0  0  0  0
    1.3753    0.1940   -9.0586 C   0  0  0  0  0  0  0  0  0  0  0  0
    0.4369   -0.1474   -9.9944 O   0  0  0  0  0  0  0  0  0  0  0  0
    0.9398   -0.2141   -7.8121 C   0  0  0  0  0  0  0  0  0  0  0  0
   -0.5867   -0.7652   -9.3428 C   0  0  0  0  0  0  0  0  0  0  0  0
   -0.3197   -0.8280   -7.9946 C   0  0  0  0  0  0  0  0  0  0  0  0
    2.3835   13.2144   -9.0018 O   0  0  0  0  0  0  0  0  0  0  0  0
    3.5718   13.9498   -9.1343 C   0  0  0  0  0  0  0  0  0  0  0  0
    3.1450   12.0414   -6.4230 O   0  0  0  0  0  0  0  0  0  0  0  0
    2.0468   12.2171   -5.5754 C   0  0  0  0  0  0  0  0  0  0  0  0
  1  2  2  0
  1  5  1  0
  1 15  1  0
  2  4  1  0
  3  6  1  0
  3  4  2  0
  3  7  1  0
  4 11  1  0
  5  6  2  0
  6  8  1  0
 14 16  1  0
 14 22  1  0
 14 21  2  0
 15 17  1  0
 15 18  1  0
 16 20  1  0
 16 19  1  0
  7  9  2  0
 22 23  1  0
 22 24  2  0
  8 10  2  0
  9 10  1  0
  9 27  1  0
 10 29  1  0
 23 25  1  0
 17 19  2  0
 18 20  2  0
 24 26  1  0
 25 26  2  0
 27 28  1  0
 29 30  1  0
 11 12  1  0
 11 13  1  0
M  END
> <COMPND>
UNNAMED

> <AUTHOR>
GENERATED BY OPEN BABEL 3.1.0

> <MASTER>
0    0    0    0    0    0    0    0   28    0   28    0

> <minimizedAffinity>
-7.13959

> <CNNscore>
0.1004858166

> <CNNaffinity>
4.1114578247

> <CNN_VS>
0.4131431878

> <CNNaffinity_variance>
1.0453132391

$$$$
ligands/lig.pdb


 30 33  0  0  0  0  0  0  0  0999 V2000
    3.2709    5.5090   -7.1611 C   0  0  0  0  0  0  0  0  0  0  0  0
    3.1272    5.2779   -5.8470 N   0  0  0  0  0  0  0  0  0  0  0  0
    3.3912    2.9158   -6.2794 C   0  0  0  0  0  0  0  0  0  0  0  0
    3.1920    3.9979   -5.4288 C   0  0  0  0  0  0  0  0  0  0  0  0
    3.5308    4.5192   -8.0375 N   0  0  0  0  0  0  0  0  0  0  0  0
    3.5846    3.2590   -7.6084 C   0  0  0  0  0  0  0  0  0  0  0  0
    3.4004    1.5555   -5.9033 C   0  0  0  0  0  0  0  0  0  0  0  0
    3.8099    2.2477   -8.5283 C   0  0  0  0  0  0  0  0  0  0  0  0
    3.6242    0.5413   -6.8445 C   0  0  0  0  0  0  0  0  0  0  0  0
    3.8168    0.8901   -8.1839 C   0  0  0  0  0  0  0  0  0  0  0  0
    3.0089    3.7758   -4.0299 N   0  0  0  0  0  0  0  0  0  0  0  0
    2.8676    4.5392   -3.4246 H   0  0  0  0  0  0  0  0  0  0  0  0
    3.0241    2.8592   -3.6709 H   0  0  0  0  0  0  0  0  0  0  0  0
    3.5504   11.2715   -8.9249 C   0  0  0  0  0  0  0  0  0  0  0  0
    3.0195    6.7852   -7.6803 N   0  0  0  0  0  0  0  0  0  0  0  0
    3.4996    9.9631   -8.4206 N   0  0  0  0  0  0  0  0  0  0  0  0
    3.8060    7.3369   -8.7956 C   0  0  0  0  0  0  0  0  0  0  0  0
    2.6113    7.9504   -6.8796 C   0  0  0  0  0  0  0  0  0  0  0  0
    3.9802    8.8486   -9.0702 C   0  0  0  0  0  0  0  0  0  0  0  0
    2.8670    9.4222   -7.3217 C   0  0  0  0  0  0  0  0  0  0  0  0
    4.1499   11.5187   -9.9692 O   0  0  0  0  0  0  0  0  0  0  0  0
    2.8607   12.3206   -8.1952 C   0  0  0  0  0  0  0  0  0  0  0  0
    3.5168   13.1402   -7.3173 O   0  0  0  0  0  0  0  0  0  0  0  0
    1.5225   12.6647   -8.2208 C   0  0  0  0  0  0  0  0  0  0  0  0
    2.5982   13.9954   -6.7893 C   0  0  0  0  0  0  0  0  0  0  0  0
    1.3541   13.7382   -7.3174 C   0  0  0  0  0  0  0  0  0  0  0  0
    3.5856   -0.7781   -6.4697 O   0  0  0  0  0  0  0  0  0  0  0  0
    2.5684   -1.0428   -5.5393 C   0  0  0  0  0  0  0  0  0  0  0  0
    4.1205    0.0582   -9.2302 O   0  0  0  0  0  0  0  0  0  0  0  0
    3.0433   -0.6180   -9.8113 C   0  0  0  0  0  0  0  0  0  0  0  0
  1  2  2  0
  1  5  1  0
  1 15  1  0
  2  4  1  0
  3  6  1  0
  3  4  2  0
  3  7  1  0
  4 11  1  0
  5  6  2  0
  6  8  1  0
 14 16  1  0
 14 22  1  0
 14 21  2  0
 15 17  1  0
 15 18  1  0
 16 20  1  0
 16 19  1  0
  7  9  2  0
 22 23  1  0
 22 24  2  0
  8 10  2  0
  9 10  1  0
  9 27  1  0
 10 29  1  0
 23 25  1  0
 17 19  2  0
 18 20  2  0
 24 26  1  0
 25 26  2  0
 27 28  1  0
 29 30  1  0
 11 12  1  0
 11 13  1  0
M  END
> <COMPND>
UNNAMED

> <AUTHOR>
GENERATED BY OPEN BABEL 3.1.0

> <MASTER>
0    0    0    0    0    0    0    0   28    0   28    0

> <minimizedAffinity>
-7.50675

> <CNNscore>
0.0860491693

> <CNNaffinity>
4.7346267700

> <CNN_VS>
0.4074107111

> <CNNaffinity_variance>
0.3774697781

$$$$
ligands/lig.pdb


 30 33  0  0  0  0  0  0  0  0999 V2000
    3.0582    8.3409   -9.0616 C   0  0  0  0  0  0  0  0  0  0  0  0
    3.2124    7.6708  -10.2140 N   0  0  0  0  0  0  0  0  0  0  0  0
    3.5876    5.6537   -8.9387 C   0  0  0  0  0  0  0  0  0  0  0  0
    3.4690    6.3496  -10.1369 C   0  0  0  0  0  0  0  0  0  0  0  0
    3.0953    7.7237   -7.8645 N   0  0  0  0  0  0  0  0  0  0  0  0
    3.3570    6.4186   -7.8060 C   0  0  0  0  0  0  0  0  0  0  0  0
    3.9203    4.2890   -8.8011 C   0  0  0  0  0  0  0  0  0  0  0  0
    3.4344    5.8064   -6.5654 C   0  0  0  0  0  0  0  0  0  0  0  0
    4.0006    3.6826   -7.5401 C   0  0  0  0  0  0  0  0  0  0  0  0
    3.7696    4.4566   -6.3998 C   0  0  0  0  0  0  0  0  0  0  0  0
    3.6558    5.6645  -11.3761 N   0  0  0  0  0  0  0  0  0  0  0  0
    3.5727    6.1537  -12.2264 H   0  0  0  0  0  0  0  0  0  0  0  0
    3.8676    4.7031  -11.3800 H   0  0  0  0  0  0  0  0  0  0  0  0
    4.0567   14.2577   -8.4369 C   0  0  0  0  0  0  0  0  0  0  0  0
    2.9861    9.7395   -9.0679 N   0  0  0  0  0  0  0  0  0  0  0  0
    3.8293   12.8738   -8.4823 N   0  0  0  0  0  0  0  0  0  0  0  0
    3.9530   10.5620   -9.8133 C   0  0  0  0  0  0  0  0  0  0  0  0
    2.5814   10.5633   -7.9176 C   0  0  0  0  0  0  0  0  0  0  0  0
    4.2906   12.0310   -9.4681 C   0  0  0  0  0  0  0  0  0  0  0  0
    3.0176   12.0477   -7.7347 C   0  0  0  0  0  0  0  0  0  0  0  0
    4.8034   14.7979   -9.2504 O   0  0  0  0  0  0  0  0  0  0  0  0
    3.3730   15.0374   -7.4204 C   0  0  0  0  0  0  0  0  0  0  0  0
    4.0129   15.4700   -6.2908 O   0  0  0  0  0  0  0  0  0  0  0  0
    2.0547   15.4502   -7.3791 C   0  0  0  0  0  0  0  0  0  0  0  0
    3.1039   16.1498   -5.5388 C   0  0  0  0  0  0  0  0  0  0  0  0
    1.8819   16.1624   -6.1710 C   0  0  0  0  0  0  0  0  0  0  0  0
    4.3688    2.3660   -7.4221 O   0  0  0  0  0  0  0  0  0  0  0  0
    3.6372    1.5250   -8.2752 C   0  0  0  0  0  0  0  0  0  0  0  0
    3.7289    4.0352   -5.0961 O   0  0  0  0  0  0  0  0  0  0  0  0
    2.6127    4.4350   -4.3548 C   0  0  0  0  0  0  0  0  0  0  0  0
  1  2  2  0
  1  5  1  0
  1 15  1  0
  2  4  1  0
  3  6  1  0
  3  4  2  0
  3  7  1  0
  4 11  1  0
  5  6  2  0
  6  8  1  0
 14 16  1  0
 14 22  1  0
 14 21  2  0
 15 17  1  0
 15 18  1  0
 16 20  1  0
 16 19  1  0
  7  9  2  0
 22 23  1  0
 22 24  2  0
  8 10  2  0
  9 10  1  0
  9 27  1  0
 10 29  1  0
 23 25  1  0
 17 19  2  0
 18 20  2  0
 24 26  1  0
 25 26  2  0
 27 28  1  0
 29 30  1  0
 11 12  1  0
 11 13  1  0
M  END
> <COMPND>
UNNAMED

> <AUTHOR>
GENERATED BY OPEN BABEL 3.1.0

> <MASTER>
0    0    0    0    0    0    0    0   28    0   28    0

> <minimizedAffinity>
-7.11381

> <CNNscore>
0.0841761157

> <CNNaffinity>
4.2987694740

> <CNN_VS>
0.3618537188

> <CNNaffinity_variance>
0.5983508229

$$$$
ligands/lig.pdb


 30 33  0  0  0  0  0  0  0  0999 V2000
    3.2297    5.3378   -8.6937 C   0  0  0  0  0  0  0  0  0  0  0  0
    2.8794    5.3483   -9.9891 N   0  0  0  0  0  0  0  0  0  0  0  0
    2.7974    7.7611   -9.9009 C   0  0  0  0  0  0  0  0  0  0  0  0
    2.6735    6.5478  -10.5691 C   0  0  0  0  0  0  0  0  0  0  0  0
    3.4316    6.4737   -7.9979 N   0  0  0  0  0  0  0  0  0  0  0  0
    3.2169    7.6506   -8.5844 C   0  0  0  0  0  0  0  0  0  0  0  0
    2.5292    9.0371  -10.4412 C   0  0  0  0  0  0  0  0  0  0  0  0
    3.3872    8.8089   -7.8433 C   0  0  0  0  0  0  0  0  0  0  0  0
    2.7002   10.2011   -9.6794 C   0  0  0  0  0  0  0  0  0  0  0  0
    3.1213   10.0865   -8.3519 C   0  0  0  0  0  0  0  0  0  0  0  0
    2.2753    6.5312  -11.9406 N   0  0  0  0  0  0  0  0  0  0  0  0
    2.1864    5.6742  -12.4171 H   0  0  0  0  0  0  0  0  0  0  0  0
    2.0896    7.3767  -12.4096 H   0  0  0  0  0  0  0  0  0  0  0  0
    4.0785   -0.3433   -6.8498 C   0  0  0  0  0  0  0  0  0  0  0  0
    3.2657    4.1294   -7.9868 N   0  0  0  0  0  0  0  0  0  0  0  0
    3.8276    0.9414   -7.3553 N   0  0  0  0  0  0  0  0  0  0  0  0
    4.5361    3.5062   -7.5814 C   0  0  0  0  0  0  0  0  0  0  0  0
    2.3326    3.0101   -8.1920 C   0  0  0  0  0  0  0  0  0  0  0  0
    4.7121    1.9950   -7.3049 C   0  0  0  0  0  0  0  0  0  0  0  0
    2.6826    1.5321   -7.8458 C   0  0  0  0  0  0  0  0  0  0  0  0
    5.1890   -0.6404   -6.4144 O   0  0  0  0  0  0  0  0  0  0  0  0
    2.9901   -1.3045   -6.8344 C   0  0  0  0  0  0  0  0  0  0  0  0
    2.4012   -1.7094   -5.6673 O   0  0  0  0  0  0  0  0  0  0  0  0
    2.3919   -1.9604   -7.8936 C   0  0  0  0  0  0  0  0  0  0  0  0
    1.4385   -2.6177   -5.9868 C   0  0  0  0  0  0  0  0  0  0  0  0
    1.3976   -2.8040   -7.3494 C   0  0  0  0  0  0  0  0  0  0  0  0
    2.3923   11.4302  -10.2061 O   0  0  0  0  0  0  0  0  0  0  0  0
    1.0211   11.5734  -10.4700 C   0  0  0  0  0  0  0  0  0  0  0  0
    3.4147   11.0996   -7.4763 O   0  0  0  0  0  0  0  0  0  0  0  0
    2.3549   11.5572   -6.6873 C   0  0  0  0  0  0  0  0  0  0  0  0
  1  2  2  0
  1  5  1  0
  1 15  1  0
  2  4  1  0
  3  6  1  0
  3  4  2  0
  3  7  1  0
  4 11  1  0
  5  6  2  0
  6  8  1  0
 14 16  1  0
 14 22  1  0
 14 21  2  0
 15 17  1  0
 15 18  1  0
 16 20  1  0
 16 19  1  0
  7  9  2  0
 22 23  1  0
 22 24  2  0
  8 10  2  0
  9 10  1  0
  9 27  1  0
 10 29  1  0
 23 25  1  0
 17 19  2  0
 18 20  2  0
 24 26  1  0
 25 26  2  0
 27 28  1  0
 29 30  1  0
 11 12  1  0
 11 13  1  0
M  END
> <COMPND>
UNNAMED

> <AUTHOR>
GENERATED BY OPEN BABEL 3.1.0

> <MASTER>
0    0    0    0    0    0    0    0   28    0   28    0

> <minimizedAffinity>
-7.85915

> <CNNscore>
0.0742233098

> <CNNaffinity>
4.5455017090

> <CNN_VS>
0.3373821676

> <CNNaffinity_variance>
0.2641090453

$$$$
ligands/lig.pdb


 30 33  0  0  0  0  0  0  0  0999 V2000
   -0.9226    2.4944   -8.9737 C   0  0  0  0  0  0  0  0  0  0  0  0
   -1.6270    1.3596   -9.1042 N   0  0  0  0  0  0  0  0  0  0  0  0
    0.0441    0.2233   -7.7804 C   0  0  0  0  0  0  0  0  0  0  0  0
   -1.1401    0.2523   -8.5089 C   0  0  0  0  0  0  0  0  0  0  0  0
    0.1992    2.5589   -8.2303 N   0  0  0  0  0  0  0  0  0  0  0  0
    0.6703    1.4535   -7.6546 C   0  0  0  0  0  0  0  0  0  0  0  0
    0.6308   -0.9194   -7.1955 C   0  0  0  0  0  0  0  0  0  0  0  0
    1.8483    1.5268   -6.9288 C   0  0  0  0  0  0  0  0  0  0  0  0
    1.8257   -0.8330   -6.4681 C   0  0  0  0  0  0  0  0  0  0  0  0
    2.4559    0.4081   -6.3446 C   0  0  0  0  0  0  0  0  0  0  0  0
   -1.8936   -0.9482   -8.6852 N   0  0  0  0  0  0  0  0  0  0  0  0
   -2.7324   -0.9317   -9.2003 H   0  0  0  0  0  0  0  0  0  0  0  0
   -1.5742   -1.7921   -8.2915 H   0  0  0  0  0  0  0  0  0  0  0  0
   -1.8808    8.0781  -11.0473 C   0  0  0  0  0  0  0  0  0  0  0  0
   -1.2680    3.6244   -9.7255 N   0  0  0  0  0  0  0  0  0  0  0  0
   -1.7191    6.8012  -10.4885 N   0  0  0  0  0  0  0  0  0  0  0  0
   -0.2551    4.5885  -10.1854 C   0  0  0  0  0  0  0  0  0  0  0  0
   -2.4968    4.4121   -9.5386 C   0  0  0  0  0  0  0  0  0  0  0  0
   -0.5547    6.0677  -10.5220 C   0  0  0  0  0  0  0  0  0  0  0  0
   -2.6214    5.9101   -9.9479 C   0  0  0  0  0  0  0  0  0  0  0  0
   -0.9206    8.6819  -11.5210 O   0  0  0  0  0  0  0  0  0  0  0  0
   -3.2117    8.6586  -11.0709 C   0  0  0  0  0  0  0  0  0  0  0  0
   -3.7271    9.3264   -9.9933 O   0  0  0  0  0  0  0  0  0  0  0  0
   -4.1510    8.6434  -12.0846 C   0  0  0  0  0  0  0  0  0  0  0  0
   -4.9855    9.7284  -10.3230 C   0  0  0  0  0  0  0  0  0  0  0  0
   -5.2895    9.3283  -11.6038 C   0  0  0  0  0  0  0  0  0  0  0  0
    2.4056   -1.9608   -5.9440 O   0  0  0  0  0  0  0  0  0  0  0  0
    1.7638   -3.1378   -6.3600 C   0  0  0  0  0  0  0  0  0  0  0  0
    3.5794    0.7081   -5.6189 O   0  0  0  0  0  0  0  0  0  0  0  0
    4.7856    0.7134   -6.3263 C   0  0  0  0  0  0  0  0  0  0  0  0
  1  2  2  0
  1  5  1  0
  1 15  1  0
  2  4  1  0
  3  6  1  0
  3  4  2  0
  3  7  1  0
  4 11  1  0
  5  6  2  0
  6  8  1  0
 14 16  1  0
 14 22  1  0
 14 21  2  0
 15 17  1  0
 15 18  1  0
 16 20  1  0
 16 19  1  0
  7  9  2  0
 22 23  1  0
 22 24  2  0
  8 10  2  0
  9 10  1  0
  9 27  1  0
 10 29  1  0
 23 25  1  0
 17 19  2  0
 18 20  2  0
 24 26  1  0
 25 26  2  0
 27 28  1  0
 29 30  1  0
 11 12  1  0
 11 13  1  0
M  END
> <COMPND>
UNNAMED

> <AUTHOR>
GENERATED BY OPEN BABEL 3.1.0

> <MASTER>
0    0    0    0    0    0    0    0   28    0   28    0

> <minimizedAffinity>
-6.25024

> <CNNscore>
0.0738102943

> <CNNaffinity>
4.0857930183

> <CNN_VS>
0.3015735745

> <CNNaffinity_variance>
0.5125785470

$$$$
ligands/lig.pdb


 30 33  0  0  0  0  0  0  0  0999 V2000
    3.5348    7.2255   -8.8375 C   0  0  0  0  0  0  0  0  0  0  0  0
    3.5065    6.9597  -10.1526 N   0  0  0  0  0  0  0  0  0  0  0  0
    3.3802    4.6049   -9.6281 C   0  0  0  0  0  0  0  0  0  0  0  0
    3.4272    5.6665  -10.5252 C   0  0  0  0  0  0  0  0  0  0  0  0
    3.4284    6.2551   -7.9089 N   0  0  0  0  0  0  0  0  0  0  0  0
    3.3579    4.9816   -8.2943 C   0  0  0  0  0  0  0  0  0  0  0  0
    3.3643    3.2343   -9.9645 C   0  0  0  0  0  0  0  0  0  0  0  0
    3.2923    3.9921   -7.3268 C   0  0  0  0  0  0  0  0  0  0  0  0
    3.3032    2.2425   -8.9761 C   0  0  0  0  0  0  0  0  0  0  0  0
    3.2827    2.6252   -7.6322 C   0  0  0  0  0  0  0  0  0  0  0  0
    3.4259    5.4082  -11.9299 N   0  0  0  0  0  0  0  0  0  0  0  0
    3.4590    6.1571  -12.5681 H   0  0  0  0  0  0  0  0  0  0  0  0
    3.3919    4.4813  -12.2600 H   0  0  0  0  0  0  0  0  0  0  0  0
    3.4410   13.1159   -7.5374 C   0  0  0  0  0  0  0  0  0  0  0  0
    3.8128    8.5232   -8.3903 N   0  0  0  0  0  0  0  0  0  0  0  0
    3.4598   11.7709   -7.9369 N   0  0  0  0  0  0  0  0  0  0  0  0
    2.9572    9.2029   -7.4039 C   0  0  0  0  0  0  0  0  0  0  0  0
    4.3678    9.5979   -9.2285 C   0  0  0  0  0  0  0  0  0  0  0  0
    2.8507   10.7388   -7.2597 C   0  0  0  0  0  0  0  0  0  0  0  0
    4.1615   11.1116   -8.9235 C   0  0  0  0  0  0  0  0  0  0  0  0
    2.7593   13.4767   -6.5802 O   0  0  0  0  0  0  0  0  0  0  0  0
    4.2615   14.0653   -8.2682 C   0  0  0  0  0  0  0  0  0  0  0  0
    3.7506   14.8313   -9.2808 O   0  0  0  0  0  0  0  0  0  0  0  0
    5.6050   14.3524   -8.1181 C   0  0  0  0  0  0  0  0  0  0  0  0
    4.7659   15.5958   -9.7695 C   0  0  0  0  0  0  0  0  0  0  0  0
    5.9287   15.3331   -9.0825 C   0  0  0  0  0  0  0  0  0  0  0  0
    3.3334    0.9141   -9.3188 O   0  0  0  0  0  0  0  0  0  0  0  0
    2.0497    0.3544   -9.4135 C   0  0  0  0  0  0  0  0  0  0  0  0
    3.1509    1.8164   -6.5334 O   0  0  0  0  0  0  0  0  0  0  0  0
    4.1548    1.9243   -5.5660 C   0  0  0  0  0  0  0  0  0  0  0  0
  1  2  2  0
  1  5  1  0
  1 15  1  0
  2  4  1  0
  3  6  1  0
  3  4  2  0
  3  7  1  0
  4 11  1  0
  5  6  2  0
  6  8  1  0
 14 16  1  0
 14 22  1  0
 14 21  2  0
 15 17  1  0
 15 18  1  0
 16 20  1  0
 16 19  1  0
  7  9  2  0
 22 23  1  0
 22 24  2  0
  8 10  2  0
  9 10  1  0
  9 27  1  0
 10 29  1  0
 23 25  1  0
 17 19  2  0
 18 20  2  0
 24 26  1  0
 25 26  2  0
 27 28  1  0
 29 30  1  0
 11 12  1  0
 11 13  1  0
M  END
> <COMPND>
UNNAMED

> <AUTHOR>
GENERATED BY OPEN BABEL 3.1.0

> <MASTER>
0    0    0    0    0    0    0    0   28    0   28    0

> <minimizedAffinity>
-7.36837

> <CNNscore>
0.0665668994

> <CNNaffinity>
4.4530954361

> <CNN_VS>
0.2964287698

> <CNNaffinity_variance>
0.4579755366

$$$$
ligands/lig.pdb


 30 33  0  0  0  0  0  0  0  0999 V2000
    3.0418    7.9373   -8.5508 C   0  0  0  0  0  0  0  0  0  0  0  0
    3.0890    8.2637   -9.8516 N   0  0  0  0  0  0  0  0  0  0  0  0
    2.9078   10.5906   -9.2280 C   0  0  0  0  0  0  0  0  0  0  0  0
    3.0252    9.5726  -10.1682 C   0  0  0  0  0  0  0  0  0  0  0  0
    2.9932    8.8705   -7.5802 N   0  0  0  0  0  0  0  0  0  0  0  0
    2.9236   10.1594   -7.9108 C   0  0  0  0  0  0  0  0  0  0  0  0
    2.7703   11.9671   -9.5082 C   0  0  0  0  0  0  0  0  0  0  0  0
    2.8307   11.1050   -6.9023 C   0  0  0  0  0  0  0  0  0  0  0  0
    2.6719   12.9134   -8.4790 C   0  0  0  0  0  0  0  0  0  0  0  0
    2.6861   12.4756   -7.1520 C   0  0  0  0  0  0  0  0  0  0  0  0
    3.0499    9.8924  -11.5600 N   0  0  0  0  0  0  0  0  0  0  0  0
    3.1329    9.1745  -12.2286 H   0  0  0  0  0  0  0  0  0  0  0  0
    2.9840   10.8306  -11.8508 H   0  0  0  0  0  0  0  0  0  0  0  0
    3.8787    2.1036   -7.2611 C   0  0  0  0  0  0  0  0  0  0  0  0
    2.9062    6.5969   -8.1687 N   0  0  0  0  0  0  0  0  0  0  0  0
    3.7104    3.4396   -7.6557 N   0  0  0  0  0  0  0  0  0  0  0  0
    3.6540    6.0356   -7.0318 C   0  0  0  0  0  0  0  0  0  0  0  0
    2.7178    5.4742   -9.1013 C   0  0  0  0  0  0  0  0  0  0  0  0
    3.9898    4.5349   -6.8700 C   0  0  0  0  0  0  0  0  0  0  0  0
    3.1145    4.0064   -8.7621 C   0  0  0  0  0  0  0  0  0  0  0  0
    4.4102    1.8287   -6.1874 O   0  0  0  0  0  0  0  0  0  0  0  0
    3.3916    1.0565   -8.1415 C   0  0  0  0  0  0  0  0  0  0  0  0
    4.1701    0.5296   -9.1360 O   0  0  0  0  0  0  0  0  0  0  0  0
    2.1523    0.4453   -8.1658 C   0  0  0  0  0  0  0  0  0  0  0  0
    3.4263   -0.4071   -9.7868 C   0  0  0  0  0  0  0  0  0  0  0  0
    2.1744   -0.4925   -9.2226 C   0  0  0  0  0  0  0  0  0  0  0  0
    2.4940   14.2427   -8.7692 O   0  0  0  0  0  0  0  0  0  0  0  0
    1.2152   14.5146   -9.2802 C   0  0  0  0  0  0  0  0  0  0  0  0
    2.6758   13.2439   -6.0169 O   0  0  0  0  0  0  0  0  0  0  0  0
    1.8544   12.7954   -4.9779 C   0  0  0  0  0  0  0  0  0  0  0  0
  1  2  2  0
  1  5  1  0
  1 15  1  0
  2  4  1  0
  3  6  1  0
  3  4  2  0
  3  7  1  0
  4 11  1  0
  5  6  2  0
  6  8  1  0
 14 16  1  0
 14 22  1  0
 14 21  2  0
 15 17  1  0
 15 18  1  0
 16 20  1  0
 16 19  1  0
  7  9  2  0
 22 23  1  0
 22 24  2  0
  8 10  2  0
  9 10  1  0
  9 27  1  0
 10 29  1  0
 23 25  1  0
 17 19  2  0
 18 20  2  0
 24 26  1  0
 25 26  2  0
 27 28  1  0
 29 30  1  0
 11 12  1  0
 11 13  1  0
M  END
> <COMPND>
UNNAMED

> <AUTHOR>
GENERATED BY OPEN BABEL 3.1.0

> <MASTER>
0    0    0    0    0    0    0    0   28    0   28    0

> <minimizedAffinity>
-7.20543

> <CNNscore>
0.0624597147

> <CNNaffinity>
4.3190770149

> <CNN_VS>
0.2697683275

> <CNNaffinity_variance>
0.4812616408

$$$$
ligands/lig.pdb


 30 33  0  0  0  0  0  0  0  0999 V2000
   -1.0529    3.0448   -8.8315 C   0  0  0  0  0  0  0  0  0  0  0  0
   -2.2871    3.5330   -8.6330 N   0  0  0  0  0  0  0  0  0  0  0  0
   -1.6906    5.4589   -9.9638 C   0  0  0  0  0  0  0  0  0  0  0  0
   -2.5863    4.7194   -9.1989 C   0  0  0  0  0  0  0  0  0  0  0  0
   -0.1524    3.6723   -9.6130 N   0  0  0  0  0  0  0  0  0  0  0  0
   -0.4620    4.8475  -10.1590 C   0  0  0  0  0  0  0  0  0  0  0  0
   -1.9303    6.7332  -10.5212 C   0  0  0  0  0  0  0  0  0  0  0  0
    0.4896    5.5012  -10.9250 C   0  0  0  0  0  0  0  0  0  0  0  0
   -0.9574    7.3865  -11.2899 C   0  0  0  0  0  0  0  0  0  0  0  0
    0.2810    6.7687  -11.4834 C   0  0  0  0  0  0  0  0  0  0  0  0
   -3.8967    5.2303   -8.9504 N   0  0  0  0  0  0  0  0  0  0  0  0
   -4.5335    4.7098   -8.4094 H   0  0  0  0  0  0  0  0  0  0  0  0
   -4.1631    6.1030   -9.3202 H   0  0  0  0  0  0  0  0  0  0  0  0
    2.0132   -1.6362   -6.5771 C   0  0  0  0  0  0  0  0  0  0  0  0
   -0.6190    1.9227   -8.1148 N   0  0  0  0  0  0  0  0  0  0  0  0
    1.3039   -0.5927   -7.1910 N   0  0  0  0  0  0  0  0  0  0  0  0
    0.5623    1.9723   -7.2380 C   0  0  0  0  0  0  0  0  0  0  0  0
   -0.6770    0.5380   -8.6096 C   0  0  0  0  0  0  0  0  0  0  0  0
    1.4114    0.7380   -6.8551 C   0  0  0  0  0  0  0  0  0  0  0  0
    0.2660   -0.5918   -8.0983 C   0  0  0  0  0  0  0  0  0  0  0  0
    2.8865   -1.3973   -5.7457 O   0  0  0  0  0  0  0  0  0  0  0  0
    1.6761   -3.0034   -6.9322 C   0  0  0  0  0  0  0  0  0  0  0  0
    2.0359   -3.5460   -8.1359 O   0  0  0  0  0  0  0  0  0  0  0  0
    0.9737   -3.9448   -6.2040 C   0  0  0  0  0  0  0  0  0  0  0  0
    1.5614   -4.8218   -8.1693 C   0  0  0  0  0  0  0  0  0  0  0  0
    0.8988   -5.1108   -6.9986 C   0  0  0  0  0  0  0  0  0  0  0  0
   -1.1906    8.6440  -11.7870 O   0  0  0  0  0  0  0  0  0  0  0  0
   -2.3830    9.2017  -11.2997 C   0  0  0  0  0  0  0  0  0  0  0  0
    1.3241    7.2081  -12.2566 O   0  0  0  0  0  0  0  0  0  0  0  0
    1.5728    6.4811  -13.4249 C   0  0  0  0  0  0  0  0  0  0  0  0
  1  2  2  0
  1  5  1  0
  1 15  1  0
  2  4  1  0
  3  6  1  0
  3  4  2  0
  3  7  1  0
  4 11  1  0
  5  6  2  0
  6  8  1  0
 14 16  1  0
 14 22  1  0
 14 21  2  0
 15 17  1  0
 15 18  1  0
 16 20  1  0
 16 19  1  0
  7  9  2  0
 22 23  1  0
 22 24  2  0
  8 10  2  0
  9 10  1  0
  9 27  1  0
 10 29  1  0
 23 25  1  0
 17 19  2  0
 18 20  2  0
 24 26  1  0
 25 26  2  0
 27 28  1  0
 29 30  1  0
 11 12  1  0
 11 13  1  0
M  END
> <COMPND>
UNNAMED

> <AUTHOR>
GENERATED BY OPEN BABEL 3.1.0

> <MASTER>
0    0    0    0    0    0    0    0   28    0   28    0

> <minimizedAffinity>
-7.77652

> <CNNscore>
0.0619432107

> <CNNaffinity>
3.7691695690

> <CNN_VS>
0.2334744632

> <CNNaffinity_variance>
1.1097062826

$$$$
