ligands/bent_ligand.pdb
 OpenBabel01092501183D

 17 18  0  0  0  0  0  0  0  0999 V2000
   34.4740   32.5780   33.6280 S   0  0  0  0  0  0  0  0  0  0  0  0
   35.7720   31.9790   33.8790 O   0  0  0  0  0  0  0  0  0  0  0  0
   34.0890   33.8010   34.3060 O   0  0  0  0  0  0  0  0  0  0  0  0
   32.2790   29.3720   33.1560 O   0  0  0  0  0  0  0  0  0  0  0  0
   33.2650   31.3730   33.8730 N   0  0  0  0  0  0  0  0  0  0  0  0
   34.2900   32.8390   31.9530 N   0  0  0  0  0  0  0  0  0  0  0  0
   32.9930   30.3370   32.9070 C   0  0  0  0  0  0  0  0  0  0  0  0
   33.6210   30.4840   31.5680 C   0  0  0  0  0  0  0  0  0  0  0  0
   34.2660   31.6540   31.1460 C   0  0  0  0  0  0  0  0  0  0  0  0
   33.5550   29.3870   30.6940 C   0  0  0  0  0  0  0  0  0  0  0  0
   34.7800   31.7390   29.8450 C   0  0  0  0  0  0  0  0  0  0  0  0
   34.1030   29.4670   29.4130 C   0  0  0  0  0  0  0  0  0  0  0  0
   34.7100   30.6440   28.9860 C   0  0  0  0  0  0  0  0  0  0  0  0
   34.8400   33.6100   31.5520 H   0  0  0  0  0  0  0  0  0  0  0  0
   32.8270   31.1940   35.2880 C   0  0  0  0  0  0  0  0  0  0  0  0
   31.4930   31.8970   35.4900 C   0  0  0  0  0  0  0  0  0  0  0  0
   33.9030   31.7520   36.2100 C   0  0  0  0  0  0  0  0  0  0  0  0
  1  3  2  0  0  0  0
  1  5  1  0  0  0  0
  1  6  1  0  0  0  0
  1  2  2  0  0  0  0
  4  7  2  0  0  0  0
  5  7  1  0  0  0  0
  5 15  1  0  0  0  0
  6  9  1  0  0  0  0
  6 14  1  0  0  0  0
  7  8  1  0  0  0  0
  8  9  2  0  0  0  0
  8 10  1  0  0  0  0
  9 11  1  0  0  0  0
 10 12  2  0  0  0  0
 11 13  2  0  0  0  0
 12 13  1  0  0  0  0
 15 16  1  0  0  0  0
 15 17  1  0  0  0  0
M  END
>  <COMPND>
    out.pdbqt 

>  <AUTHOR>
    GENERATED BY OPEN BABEL 3.1.1

>  <REMARK>
   4 XXXX COMPLIES WITH FORMAT V. 2.0

$$$$
