ligands/lig.pdb
 OpenBabel01092501183D

 28 31  0  0  0  0  0  0  0  0999 V2000
    0.6070   -2.3590    0.1390 C   0  0  0  0  0  0  0  0  0  0  0  0
    0.5920   -3.7000    0.0900 N   0  0  0  0  0  0  0  0  0  0  0  0
   -1.8220   -3.6260    0.0330 C   0  0  0  0  0  0  0  0  0  0  0  0
   -0.6100   -4.3080    0.0350 C   0  0  0  0  0  0  0  0  0  0  0  0
   -0.5230   -1.6280    0.0760 N   0  0  0  0  0  0  0  0  0  0  0  0
   -1.7030   -2.2450    0.0290 C   0  0  0  0  0  0  0  0  0  0  0  0
    5.7050    0.8490   -0.2000 C   0  0  0  0  0  0  0  0  0  0  0  0
    1.8050   -1.6800    0.3940 N   0  0  0  0  0  0  0  0  0  0  0  0
    4.5600    0.0380   -0.1860 N   0  0  0  0  0  0  0  0  0  0  0  0
   -3.1050   -4.2140    0.0440 C   0  0  0  0  0  0  0  0  0  0  0  0
    7.0070    0.2070   -0.1630 C   0  0  0  0  0  0  0  0  0  0  0  0
   -2.8580   -1.4800    0.0080 C   0  0  0  0  0  0  0  0  0  0  0  0
   -4.2660   -3.4290    0.0280 C   0  0  0  0  0  0  0  0  0  0  0  0
   -4.1430   -2.0370    0.0260 C   0  0  0  0  0  0  0  0  0  0  0  0
    7.1400   -1.1550   -0.1510 O   0  0  0  0  0  0  0  0  0  0  0  0
    1.9300   -0.2270    0.1940 C   0  0  0  0  0  0  0  0  0  0  0  0
    3.1480   -2.2240    0.1370 C   0  0  0  0  0  0  0  0  0  0  0  0
    3.2680    0.5000   -0.0750 C   0  0  0  0  0  0  0  0  0  0  0  0
    4.3990   -1.3290   -0.1100 C   0  0  0  0  0  0  0  0  0  0  0  0
    5.6060    2.0740   -0.2250 O   0  0  0  0  0  0  0  0  0  0  0  0
    8.2620    0.7840   -0.1190 C   0  0  0  0  0  0  0  0  0  0  0  0
    8.4710   -1.4370   -0.0970 C   0  0  0  0  0  0  0  0  0  0  0  0
    9.2010   -0.2710   -0.0750 C   0  0  0  0  0  0  0  0  0  0  0  0
   -0.6000   -5.7360    0.0110 N   0  0  0  0  0  0  0  0  0  0  0  0
   -5.5050   -4.0160    0.0840 O   0  0  0  0  0  0  0  0  0  0  0  0
   -5.1470   -1.1080   -0.0630 O   0  0  0  0  0  0  0  0  0  0  0  0
   -6.3380   -1.4240    0.5980 C   0  0  0  0  0  0  0  0  0  0  0  0
   -5.6830   -4.9910   -0.9100 C   0  0  0  0  0  0  0  0  0  0  0  0
  1  2  2  0  0  0  0
  1  5  1  0  0  0  0
  1  8  1  0  0  0  0
  2  4  1  0  0  0  0
  3  6  1  0  0  0  0
  3  4  2  0  0  0  0
  3 10  1  0  0  0  0
  4 24  1  0  0  0  0
  5  6  2  0  0  0  0
  6 12  1  0  0  0  0
  7  9  1  0  0  0  0
  7 11  1  0  0  0  0
  7 20  2  0  0  0  0
  8 16  1  0  0  0  0
  8 17  1  0  0  0  0
  9 19  1  0  0  0  0
  9 18  1  0  0  0  0
 10 13  2  0  0  0  0
 11 15  1  0  0  0  0
 11 21  2  0  0  0  0
 12 14  2  0  0  0  0
 13 14  1  0  0  0  0
 13 25  1  0  0  0  0
 14 26  1  0  0  0  0
 15 22  1  0  0  0  0
 16 18  2  0  0  0  0
 17 19  2  0  0  0  0
 21 23  1  0  0  0  0
 22 23  2  0  0  0  0
 25 28  1  0  0  0  0
 26 27  1  0  0  0  0
M  END
>  <COMPND>
UNNAMED

>  <AUTHOR>
GENERATED BY OPEN BABEL 3.1.0

>  <MASTER>
        0    0    0    0    0    0    0    0   28    0   28    0

$$$$
