ligands/lig.pdb
     RDKit          3D

 28 31  0  0  0  0  0  0  0  0999 V2000
   -0.9380    2.6763   -8.7104 C   0  0  0  0  0  0  0  0  0  0  0  0
   -2.1685    3.1915   -8.5638 N   0  0  0  0  0  0  0  0  0  0  0  0
   -1.4610    5.1244   -9.8285 C   0  0  0  0  0  0  0  0  0  0  0  0
   -2.4108    4.3945   -9.1220 C   0  0  0  0  0  0  0  0  0  0  0  0
    0.0148    3.2944   -9.4353 N   0  0  0  0  0  0  0  0  0  0  0  0
   -0.2392    4.4861   -9.9743 C   0  0  0  0  0  0  0  0  0  0  0  0
   -1.6422    6.4135  -10.3737 C   0  0  0  0  0  0  0  0  0  0  0  0
    0.7645    5.1289  -10.6808 C   0  0  0  0  0  0  0  0  0  0  0  0
   -0.6171    7.0555  -11.0817 C   0  0  0  0  0  0  0  0  0  0  0  0
    0.6142    6.4105  -11.2255 C   0  0  0  0  0  0  0  0  0  0  0  0
   -3.7192    4.9334   -8.9287 N   0  0  0  0  0  0  0  0  0  0  0  0
    1.8646   -2.1666   -6.4549 C   0  0  0  0  0  0  0  0  0  0  0  0
   -0.5671    1.5317   -7.9938 N   0  0  0  0  0  0  0  0  0  0  0  0
    1.2143   -1.0855   -7.0691 N   0  0  0  0  0  0  0  0  0  0  0  0
    0.6140    1.5163   -7.1153 C   0  0  0  0  0  0  0  0  0  0  0  0
   -0.6999    0.1525   -8.4896 C   0  0  0  0  0  0  0  0  0  0  0  0
    1.3938    0.2371   -6.7322 C   0  0  0  0  0  0  0  0  0  0  0  0
    0.1793   -1.0274   -7.9778 C   0  0  0  0  0  0  0  0  0  0  0  0
    2.7485   -1.9762   -5.6221 O   0  0  0  0  0  0  0  0  0  0  0  0
    1.4539   -3.5130   -6.8114 C   0  0  0  0  0  0  0  0  0  0  0  0
    0.9939   -4.3989   -5.8752 O   0  0  0  0  0  0  0  0  0  0  0  0
    1.4583   -4.1261   -8.0499 C   0  0  0  0  0  0  0  0  0  0  0  0
    0.7119   -5.5658   -6.5178 C   0  0  0  0  0  0  0  0  0  0  0  0
    0.9837   -5.4436   -7.8610 C   0  0  0  0  0  0  0  0  0  0  0  0
   -0.7953    8.3267  -11.5667 O   0  0  0  0  0  0  0  0  0  0  0  0
   -1.2913    8.3361  -12.8798 C   0  0  0  0  0  0  0  0  0  0  0  0
    1.7044    6.8369  -11.9386 O   0  0  0  0  0  0  0  0  0  0  0  0
    2.2422    5.9203  -12.8474 C   0  0  0  0  0  0  0  0  0  0  0  0
  1  2  2  0
  1  5  1  0
  1 13  1  0
  2  4  1  0
  3  6  1  0
  3  4  2  0
  3  7  1  0
  4 11  1  0
  5  6  2  0
  6  8  1  0
 12 14  1  0
 12 20  1  0
 12 19  2  0
 13 15  1  0
 13 16  1  0
 14 18  1  0
 14 17  1  0
  7  9  2  0
 20 21  1  0
 20 22  2  0
  8 10  2  0
  9 10  1  0
  9 25  1  0
 10 27  1  0
 21 23  1  0
 15 17  2  0
 16 18  2  0
 22 24  1  0
 23 24  2  0
 25 26  1  0
 27 28  1  0
M  END
>  <COMPND>  (1) 
UNNAMED

>  <AUTHOR>  (1) 
GENERATED BY OPEN BABEL 3.1.0

>  <MASTER>  (1) 
0    0    0    0    0    0    0    0   28    0   28    0

>  <minimizedAffinity>  (1) 
-8.26058

>  <CNNscore>  (1) 
0.0817695409

>  <CNNaffinity>  (1) 
3.7845964432

>  <CNN_VS>  (1) 
0.3094647229

>  <CNNaffinity_variance>  (1) 
1.2110654116

$$$$
